Version 4
SHEET 1 1260 680
WIRE -368 -240 -368 -256
WIRE 16 -240 16 -272
WIRE 64 -240 16 -240
WIRE 336 -240 288 -240
WIRE 400 -240 336 -240
WIRE 448 -240 400 -240
WIRE 336 -208 336 -240
WIRE 400 -208 400 -240
WIRE -176 -144 -192 -144
WIRE 16 -144 16 -176
WIRE 16 -144 -96 -144
WIRE 96 -144 16 -144
WIRE -368 -128 -368 -144
WIRE 16 -112 16 -144
WIRE 64 -112 64 -240
WIRE 336 -112 336 -144
WIRE 16 -32 16 -48
WIRE 64 -32 64 -48
WIRE 64 -32 16 -32
WIRE 336 -32 336 -48
WIRE 368 -32 336 -32
WIRE 400 -32 400 -144
WIRE 400 -32 368 -32
WIRE -368 -16 -368 -48
WIRE 16 -16 16 -32
WIRE 368 -16 368 -32
FLAG -368 -16 0
FLAG 448 -240 OUT
IOPIN 448 -240 Out
FLAG -368 -240 0
FLAG -368 -336 VCC
IOPIN -368 -336 Out
FLAG 16 -272 VCC
IOPIN 16 -272 In
FLAG 16 -16 0
FLAG 368 -16 0
FLAG -368 -144 IN
IOPIN -368 -144 Out
FLAG 208 -240 IN
IOPIN 208 -240 In
SYMBOL voltage -368 -352 R0
WINDOW 123 0 0 Left 0
WINDOW 39 36 60 Left 2
SYMATTR SpiceLine Rser=.1
SYMATTR InstName V2
SYMATTR Value 5
SYMBOL diode 32 -176 R180
WINDOW 0 24 64 Left 2
WINDOW 3 24 0 Left 2
SYMATTR InstName D2
SYMATTR Value 1N4148
SYMBOL res -192 -160 M90
WINDOW 0 0 56 VBottom 2
WINDOW 3 32 56 VTop 2
SYMATTR InstName R1
SYMATTR Value 10k
SYMBOL schottky 32 -48 R180
WINDOW 0 24 64 Left 2
WINDOW 3 25 2 Left 2
SYMATTR InstName D3
SYMATTR Value 1N5817
SYMATTR Description Diode
SYMATTR Type diode
SYMBOL res 192 -256 M90
WINDOW 0 0 56 VBottom 2
WINDOW 3 32 56 VTop 2
SYMATTR InstName R2
SYMATTR Value 1k
SYMBOL diode 320 -208 R0
WINDOW 0 -21 5 Left 2
WINDOW 3 -82 60 Left 2
SYMATTR InstName D1
SYMATTR Value 1N4007
SYMBOL diode 416 -144 R180
WINDOW 0 -27 61 Left 2
WINDOW 3 -79 4 Left 2
SYMATTR InstName D4
SYMATTR Value 1N4007
SYMBOL voltage -368 -144 R0
WINDOW 123 0 0 Left 0
WINDOW 39 35 65 Left 2
WINDOW 0 46 30 Left 2
WINDOW 3 16 99 Left 2
SYMATTR SpiceLine Rser=.1
SYMATTR InstName V1
SYMATTR Value SINE(2 5 10k)
SYMBOL cap 48 -112 R0
SYMATTR InstName C1
SYMATTR Value 100n
SYMBOL diode 320 -112 R0
WINDOW 0 -18 6 Left 2
WINDOW 3 -75 61 Left 2
SYMATTR InstName D5
SYMATTR Value 1N4007
TEXT 624 -280 Left 2 !.tran 700u
TEXT -80 -376 Left 2 ;or both schottky
TEXT 216 -344 Left 2 ;change quantitys for \nwhat voltage you want
