Version 4
SHEET 1 880 680
WIRE -336 -256 -336 -272
WIRE -208 -144 -336 -144
WIRE 16 -144 16 -176
WIRE 16 -144 -128 -144
WIRE 48 -144 16 -144
WIRE -336 -128 -336 -144
WIRE 16 -112 16 -144
WIRE -336 -16 -336 -48
WIRE 16 -16 16 -48
FLAG 16 -16 0
FLAG -336 -16 0
FLAG 48 -144 OUT
IOPIN 48 -144 Out
FLAG -336 -256 0
FLAG -336 -352 VCC
IOPIN -336 -352 Out
FLAG 16 -240 VCC
IOPIN 16 -240 In
SYMBOL voltage -336 -144 R0
WINDOW 123 0 0 Left 0
WINDOW 39 0 0 Left 0
SYMATTR InstName V3
SYMATTR Value SINE(2 5 10k)
SYMBOL voltage -336 -368 R0
WINDOW 123 0 0 Left 0
WINDOW 39 0 0 Left 0
SYMATTR InstName V4
SYMATTR Value 3.3
SYMBOL diode 32 -48 R180
WINDOW 0 24 64 Left 2
WINDOW 3 24 0 Left 2
SYMATTR InstName D1
SYMATTR Value 1N4007
SYMBOL diode 32 -176 R180
WINDOW 0 24 64 Left 2
WINDOW 3 24 0 Left 2
SYMATTR InstName D2
SYMATTR Value 1N4007
SYMBOL res -224 -160 M90
WINDOW 0 0 56 VBottom 2
WINDOW 3 32 56 VTop 2
SYMATTR InstName R1
SYMATTR Value 10k
TEXT -408 8 Left 2 !.tran 0 100m 99m
