Version 4
SHEET 1 1260 680
WIRE 144 -400 128 -400
WIRE 176 -400 144 -400
WIRE 288 -400 256 -400
WIRE -96 -320 -96 -336
WIRE 144 -272 144 -400
WIRE 160 -272 144 -272
WIRE 288 -256 288 -400
WIRE 288 -256 224 -256
WIRE 320 -256 288 -256
WIRE 16 -240 -48 -240
WIRE 112 -240 96 -240
WIRE 160 -240 112 -240
WIRE -96 -224 -96 -240
WIRE 112 -224 112 -240
WIRE -48 -208 -48 -240
WIRE 192 -208 192 -224
WIRE -48 -112 -48 -128
WIRE 112 -112 112 -144
FLAG -48 -112 0
FLAG -96 -336 IN
IOPIN -96 -336 Out
FLAG 112 -112 0
FLAG 192 -208 0
FLAG -96 -224 0
FLAG 192 -288 IN
IOPIN 192 -288 In
FLAG 320 -256 OUT
IOPIN 320 -256 Out
FLAG 0 -368 0
FLAG 0 -448 IN
IOPIN 0 -448 Out
SYMBOL voltage -48 -224 R0
WINDOW 3 -55 140 Left 2
WINDOW 123 0 0 Left 0
WINDOW 39 0 0 Left 0
SYMATTR Value PULSE(2.5 1.5 0 2m 2m 10m 50m)
SYMATTR InstName V3
SYMBOL res 0 -256 M90
WINDOW 0 0 56 VBottom 2
WINDOW 3 32 56 VTop 2
SYMATTR InstName R1
SYMATTR Value 10k
SYMBOL res 96 -240 R0
SYMATTR InstName R2
SYMATTR Value 100k
SYMBOL AutoGenerated\\LM358 224 -240 R0
SYMATTR InstName U1
SYMBOL voltage -96 -336 R0
WINDOW 0 30 -9 Left 2
WINDOW 3 26 19 Left 2
WINDOW 123 0 0 Left 0
WINDOW 39 35 47 Left 2
SYMATTR InstName V1
SYMATTR Value 5
SYMATTR SpiceLine Rser=.1
SYMBOL res 160 -416 M90
WINDOW 0 0 56 VBottom 2
WINDOW 3 32 56 VTop 2
SYMATTR InstName R3
SYMATTR Value 100k
SYMBOL res 32 -416 M90
WINDOW 0 0 56 VBottom 2
WINDOW 3 32 56 VTop 2
SYMATTR InstName R4
SYMATTR Value 10k
SYMBOL AutoGenerated\\pot -16 -464 R0
WINDOW 0 -53 13 Left 2
WINDOW 3 -92 39 Left 2
WINDOW 123 -101 63 Left 2
SYMATTR InstName U2
SYMATTR Value Rt = 1K
SYMATTR Value2 Val = 35
SYMATTR Description Resistor Potentiometer
TEXT 264 -152 Left 2 !;tran 0.3
TEXT 200 -464 Center 2 ;change 1V pk-pk to 3.5V pk-pk
RECTANGLE Normal 400 -64 -144 -512 2
